# generated using pymatgen
data_WS2
_symmetry_space_group_name_H-M   'P 1'
_cell_length_a   3.19073116
_cell_length_b   3.19073116
_cell_length_c   24.20240200
_cell_angle_alpha   90.00000000
_cell_angle_beta   90.00000000
_cell_angle_gamma   119.99998261
_symmetry_Int_Tables_number   1
_chemical_formula_structural   WS2
_chemical_formula_sum   'W2 S4'
_cell_volume   213.38780964
_cell_formula_units_Z   2
loop_
 _symmetry_equiv_pos_site_id
 _symmetry_equiv_pos_as_xyz
  1  'x, y, z'
loop_
 _atom_site_type_symbol
 _atom_site_label
 _atom_site_symmetry_multiplicity
 _atom_site_fract_x
 _atom_site_fract_y
 _atom_site_fract_z
 _atom_site_occupancy
  W  W0  1  0.33333300  0.66666700  0.64670500  1
  W  W1  1  0.66666700  0.33333300  0.35329500  1
  S  S2  1  0.33333300  0.66666700  0.28830100  1
  S  S3  1  0.66666700  0.33333300  0.58171000  1
  S  S4  1  0.33333300  0.66666700  0.41829000  1
  S  S5  1  0.66666700  0.33333300  0.71169900  1
